# pkg/mnc inputs
 &MNC_01
 monitor_mnc=.TRUE.,
 mnc_use_outdir=.TRUE.,
 mnc_filefreq=2500,
 /


