# pkg/mnc inputs
 &MNC_01
 monitor_mnc=.FALSE.,
 mnc_use_outdir=.TRUE.,
 mnc_filefreq=3600,
 /


